16
Energy=-1.2036835659680838
N 3.6547 -0.0142 4.9244
C 2.5996 -0.0145 4.4431
C 1.315 -0.0143 3.8045
C 1.2501 0.0 2.4052
C -0.0 0.0 1.7659
S 0.0 0.0 0.0
C -1.1389 -0.0101 2.5977
N -1.0742 -0.0209 3.9225
C 0.1029 -0.0247 4.5293
C 0.1013 -0.04 6.0517
F 0.7499 -1.1238 6.5132
F -1.1317 -0.0527 6.5462
F 0.7363 1.0423 6.535
H 2.175 0.0118 1.8258
Au -2.2118 0.1641 -0.6146
H -2.1396 -0.0073 2.1504
19
Energy=3.0561147576360326
F -2.5079 2.0711 2.0735
C -3.2085 0.9487 1.7988
O -2.403 -0.1738 1.9071
C -1.1833 -0.1183 2.5334
C -0.0 0.0 1.7765
S 0.0 0.0 0.0
C 1.2263 0.0 2.4624
C 1.2879 -0.1158 3.8478
C 0.109 -0.2602 4.5807
C -1.1354 -0.2776 3.9297
C -2.431 -0.4724 4.6518
O -3.3434 0.2906 4.6629
Cl -2.5574 -2.0683 5.4472
Cl 0.202 -0.3627 6.3146
F -3.6429 1.0249 0.5315
H -4.0711 0.8905 2.4785
Au -0.641 2.1525 -0.5227
H 2.144 0.1008 1.8808
H 2.2442 -0.0929 4.371
20
Energy=-1.3711323388931138
O -1.8812 -0.0397 4.636
C -1.0389 -0.0211 3.7766
N -1.2382 0.0004 2.4026
C 0.0 0.0 1.7538
N 1.0169 0.0 2.5402
C 0.506 -0.0048 3.9049
C 1.0204 -1.1529 4.7486
C 0.6679 -1.2577 6.1033
N 1.0807 -2.2513 6.8894
C 1.8671 -3.1964 6.3744
C 2.2691 -3.1745 5.0349
C 1.8429 -2.1406 4.2022
Br 3.3938 -4.5521 4.3566
S 0.0 0.0 0.0
H -2.1493 -0.0251 1.9586
H 0.774 0.9462 4.403
H 0.0125 -0.5069 6.5562
H 2.1953 -4.0028 7.0381
H 2.1376 -2.0887 3.1543
Au 2.3013 -0.0431 -0.2773
31
Energy=-2.110711519272505
C -4.1826 2.8556 -1.3923
C -3.6884 1.6912 -0.5404
N -4.2818 1.6852 0.794
C -3.7771 2.7311 1.6919
C -3.0008 2.1479 2.8845
N -2.1864 1.0213 2.445
C -2.9301 -0.107 1.882
C -4.3243 0.3879 1.4372
C -0.8313 1.1749 2.3855
O -0.2731 2.2099 2.7327
C 0.0 0.0 1.8548
S 0.0 0.0 0.0
C 1.4023 0.0 2.4463
H -3.9004 3.8266 -0.9545
H -3.7454 2.8098 -2.4027
H -5.2802 2.8332 -1.4782
H -2.5779 1.6988 -0.5062
H -3.9693 0.7451 -1.0316
H -3.0986 3.3897 1.1273
H -4.5972 3.3701 2.0721
H -2.3321 2.898 3.3206
H -3.6898 1.8047 3.6742
H -2.3913 -0.4871 1.0038
H -3.0303 -0.9339 2.6117
H -4.765 -0.352 0.7517
H -5.001 0.4425 2.3062
H -0.5036 -0.9533 2.0822
Au 0.5748 2.1886 -0.4368
H 1.9052 0.9517 2.2282
H 1.3563 -0.1127 3.5418
H 1.9931 -0.8252 2.025
32
Energy=-1.0198405943563722
C 0.9736 -0.0227 7.5992
C 0.3758 -0.0171 6.2149
C -1.0246 -0.0193 6.0403
N -1.648 -0.0155 4.8538
C -0.8446 -0.0089 3.8046
C 0.576 -0.0055 3.8278
C 1.1981 -0.0097 5.0761
N 1.0665 0.0 2.537
C 0.0 0.0 1.7593
N -1.1938 -0.0023 2.4578
C -2.5455 -0.0187 1.9075
C -3.3103 -1.2894 2.2926
C -4.6561 -1.3129 1.541
O -5.0985 -0.0154 1.181
C -4.853 0.942 2.1916
C -3.3465 1.2336 2.3172
S 0.0 0.0 0.0
H 1.6065 -0.9112 7.7595
H 0.1927 -0.0236 8.3738
H 1.6102 0.8621 7.765
H -1.6717 -0.0243 6.9242
H 2.2877 -0.0076 5.1601
H -2.4242 -0.0126 0.8143
H -3.4541 -1.291 3.3831
H -2.7157 -2.1808 2.0411
H -5.4238 -1.8252 2.1555
H -4.5625 -1.8683 0.5948
H -5.2586 0.5889 3.1608
H -5.4108 1.8483 1.9153
H -3.1059 1.4966 3.357
H -3.0487 2.0762 1.6745
Au 2.3024 0.0162 -0.2527
41
Energy=3.0502134124148625
F 3.4005 1.5385 12.1058
C 2.073 1.5715 11.9372
C 1.2587 1.8295 13.0388
C -0.1262 1.8615 12.8509
C -0.6781 1.6406 11.5907
C 0.1573 1.381 10.4866
C 1.5521 1.3473 10.6692
C -0.4117 1.1493 9.1674
C -1.7189 1.1179 8.6997
C -1.6515 0.8437 7.3187
C -0.3019 0.719 6.9928
C 0.4941 0.4568 5.8505
C 0.2254 0.2391 4.5206
C 1.4145 -0.0192 3.6442
O 2.5283 -0.1895 4.1009
N 1.1857 0.0 2.2714
C 0.0 -0.0 1.7792
S 0.0 0.0 0.0
N -1.1717 -0.0241 2.5396
C -1.1182 0.194 3.9456
O -2.1625 0.2951 4.5669
C -2.4587 -0.3253 1.987
C -3.4374 0.674 1.8954
C -4.6669 0.3814 1.2966
C -4.9202 -0.9053 0.8028
C -3.9511 -1.9031 0.9281
C -2.7215 -1.6166 1.5273
O 0.4337 0.9106 8.1493
H 1.7144 1.9993 14.0155
H -0.7804 2.0621 13.7019
H -1.7607 1.6693 11.4612
H 2.2238 1.1488 9.8344
H -2.6179 1.2726 9.2903
H -2.4608 0.7352 6.6066
H 1.5665 0.4193 6.0732
Au -2.0033 0.9232 -0.7035
H -3.2282 1.6668 2.2947
H -5.4312 1.1583 1.2236
H -5.8797 -1.1296 0.3316
H -4.1487 -2.91 0.5545
H -1.9488 -2.382 1.6127
24
Energy=2.9206798560828777
O 0.7806 0.0061 11.8061
C -0.291 0.0029 10.9842
O -1.4253 0.0006 11.4014
C 0.0829 0.0027 9.5427
C -0.944 -0.0001 8.5872
C -0.6556 -0.0005 7.227
C 0.6862 0.0018 6.7836
C 1.1336 0.0013 5.3939
C 0.5152 0.0004 4.1823
S 1.5008 0.0 2.6994
C 0.0 0.0 1.7477
S 0.0 0.0 0.0
N -1.1125 0.0002 2.3889
C -0.9494 0.0002 3.7824
O -1.882 0.0001 4.5546
C 1.7112 0.0045 7.7607
C 1.4206 0.0051 9.1186
H 0.4299 0.0059 12.7125
H -1.9783 -0.002 8.935
H -1.4565 -0.0024 6.4918
H 2.2277 0.0019 5.3281
Au 2.2492 -0.0032 -0.5125
H 2.755 0.0062 7.4368
H 2.2218 0.0073 9.8576
49
Energy=1.1281195664959818
C 1.1714 -1.2194 15.547
N 1.2484 0.0307 14.822
C 1.2547 1.2856 15.5428
C 1.3144 0.0262 13.446
C 1.3116 -1.1873 12.7117
C 1.3788 -1.1838 11.3222
C 1.4486 0.0171 10.6103
C 1.4536 1.2225 11.318
C 1.3883 1.235 12.7076
N 1.5205 0.0127 9.1844
C 2.7159 0.0095 8.4455
C 4.0422 0.0078 9.1261
C 2.3846 0.0057 7.1186
C 0.942 0.0063 7.0153
C 0.0464 0.0038 5.9113
C 0.1445 0.0013 4.5341
C -1.164 0.0003 3.8072
O -2.2369 0.0 4.3907
N -1.1272 -0.0 2.4161
C 0.0 -0.0 1.7766
S 0.0 0.0 0.0
N 1.2482 -0.0 2.3588
C 2.4653 -0.0003 1.5505
C 1.3941 0.0002 3.7766
O 2.5211 -0.0003 4.2456
C 0.4468 0.0109 8.3445
C -0.9458 0.0159 8.8758
H 2.0528 -1.8614 15.3648
H 1.1242 -1.0135 16.6234
H 0.2725 -1.8031 15.2756
H 1.1978 1.0868 16.6201
H 0.3949 1.9257 15.2721
H 2.1755 1.8682 15.3556
H 1.2576 -2.1442 13.2275
H 1.3778 -2.1285 10.7741
H 1.5094 2.1636 10.7665
H 1.3941 2.1951 13.2201
H 4.1787 0.896 9.7655
H 4.8416 -0.0001 8.373
H 4.17 -0.8744 9.7755
H 3.0648 0.002 6.2761
H -1.0098 0.0041 6.1999
Au -2.3191 0.0016 -0.2022
H 2.5055 -0.8963 0.9133
H 3.3135 0.0006 2.243
H 2.5048 0.8946 0.9118
H -1.681 0.0282 8.0624
H -1.1246 0.8962 9.5147
H -1.1386 -0.8722 9.4996
42
Energy=1.509347226725465
O -2.1685 -0.0646 4.485
C -0.9966 -0.0206 3.8318
N -1.0994 -0.0051 2.4748
C 0.0 -0.0 1.7721
S 0.0 0.0 0.0
N 1.2382 0.0 2.3468
C 2.4271 0.0044 1.539
C 3.0745 -1.2003 1.255
C 4.2287 -1.2011 0.4749
C 4.7275 0.0122 -0.01
Cl 6.1697 0.0155 -0.9905
C 4.0913 1.2226 0.281
C 2.9387 1.2147 1.0644
C 1.4158 -0.0128 3.7773
O 2.5532 -0.0084 4.2231
C 0.1896 -0.0203 4.5295
C 0.2676 -0.0892 6.0382
N 1.0788 1.0147 6.5493
C 1.4507 0.8265 7.9425
C 2.3197 -0.419 8.1422
C 1.6832 -1.6358 7.509
C 2.0459 -2.9276 7.9196
C 1.4655 -4.0595 7.3492
C 0.4945 -3.9087 6.3544
C 0.1265 -2.6291 5.9403
C 0.7185 -1.4863 6.4966
H -2.8645 -0.0568 3.8097
Au -2.2767 -0.0413 -0.3949
H 2.6703 -2.1337 1.6494
H 4.7457 -2.1325 0.2422
H 4.5014 2.1577 -0.1013
H 2.4284 2.1477 1.3087
H -0.759 0.0486 6.4187
H 1.9302 1.0584 5.9879
H 0.528 0.738 8.544
H 1.9771 1.7265 8.2998
H 2.5112 -0.6074 9.2123
H 3.3064 -0.2415 7.6752
H 2.7987 -3.0396 8.7055
H 1.7637 -5.0563 7.6836
H 0.0246 -4.7867 5.904
H -0.6384 -2.5104 5.169
47
Energy=2.30550997436116
C 4.8236 2.3901 -0.24
C 4.1655 1.1222 0.2379
C 4.676 -0.1265 -0.1364
C 4.0851 -1.3161 0.2956
C 2.9622 -1.2639 1.1143
C 2.44 -0.0216 1.4853
N 1.2687 0.0 2.326
C -0.0 -0.0 1.7719
S 0.0 0.0 0.0
N -1.1046 0.0121 2.4434
C -1.0982 0.0305 3.8354
O -2.1425 0.023 4.4627
C 0.2364 0.0694 4.5209
C 0.2032 0.112 5.8943
C 1.1915 0.1565 6.9072
C 2.5814 0.1797 7.0099
C 2.8939 0.2242 8.3836
C 1.6867 0.2271 9.0711
O 0.6709 0.1869 8.1907
C 1.3579 0.2638 10.4872
C 2.3768 0.3084 11.4592
C 2.0677 0.3435 12.8155
C 0.7281 0.3339 13.2034
F 0.4274 0.3676 14.5063
C -0.3035 0.2901 12.2672
C 0.0146 0.2552 10.9122
C 1.4651 0.0592 3.7264
O 2.6042 0.1019 4.1589
C 3.0247 1.1854 1.0694
C 2.4618 2.5174 1.4816
H 4.127 3.0097 -0.8292
H 5.1607 3.014 0.6045
H 5.6977 2.1728 -0.8698
H 5.5583 -0.1652 -0.7806
H 4.5012 -2.2794 -0.0065
H 2.4736 -2.1727 1.4688
Au -2.3064 0.0494 -0.2618
H -0.8193 0.1093 6.2885
H 3.2521 0.1644 6.1588
H 3.8867 0.2511 8.8248
H 3.4238 0.3157 11.152
H 2.8463 0.3781 13.5791
H -1.3391 0.2839 12.6112
H -0.7802 0.2207 10.1665
H 1.5643 2.4158 2.1028
H 3.2042 3.0956 2.0552
H 2.1931 3.1214 0.6003
31
Energy=-0.6347225105701166
C 3.6658 3.7575 -0.9997
N 3.438 3.0704 0.2523
C 3.4954 3.5821 1.5146
C 3.1964 2.5439 2.3798
C 2.9694 1.4334 1.5268
N 3.1174 1.7696 0.2455
C 2.5541 0.0461 1.9122
N 1.1989 0.0 2.4463
C -0.0 -0.0 1.7578
S 0.0 0.0 0.0
N -1.0545 0.0111 2.5535
C -0.544 0.0418 3.8363
C 0.8727 0.0529 3.7929
N 1.7098 0.1057 4.8163
C 1.1045 0.1351 6.0111
C -0.2915 0.1176 6.1873
C -1.1689 0.0703 5.0928
C -2.663 0.0568 5.2245
H 2.7646 3.7078 -1.629
H 3.9069 4.8086 -0.7941
H 4.5021 3.293 -1.5435
H 3.7431 4.6259 1.6947
H 3.1409 2.5629 3.4652
H 3.2038 -0.3497 2.7052
H 2.6131 -0.6101 1.0325
Au -2.2509 -0.4587 -0.2747
H 1.7594 0.1782 6.8876
H -0.6957 0.1466 7.2022
H -3.1075 0.9092 4.6857
H -2.9783 0.1006 6.2766
H -3.0847 -0.8534 4.7679
16
Energy=0.910325368593883
S 0.0 0.0 0.0
C 0.0 0.0 1.8555
C 1.4474 -0.0 2.2622
C 2.1507 1.2056 2.41
C 3.5037 1.2038 2.7451
C 4.1677 -0.0076 2.9237
C 3.4873 -1.2203 2.7676
C 2.1331 -1.2118 2.4317
Br 4.4168 -2.8533 3.0148
F 5.461 -0.003 3.2466
Au -2.2255 0.0069 -0.5461
H -0.5156 0.8953 2.2266
H -0.5186 -0.8933 2.227
H 1.6315 2.1546 2.2602
H 4.0659 2.1307 2.8722
H 1.61 -2.1605 2.3008
50
Energy=1.2398252662357778
S 0.0 0.0 0.0
C 0.0 -0.0 1.775
N 1.1047 -0.0 2.4426
C 1.1019 -0.0006 3.8369
O 2.1591 0.0006 4.4449
C -0.2273 -0.0033 4.5419
C -0.1419 -0.0036 5.9211
C -1.0238 -0.006 7.0526
C -0.395 -0.0 8.3271
C -1.0976 0.0124 9.517
C -0.3986 0.0413 10.8543
C -1.2247 -0.7207 11.8878
C -2.6261 -0.1313 11.9596
N -3.2494 -0.0105 10.6478
C -4.702 0.1111 10.668
C -5.2555 0.6998 9.3784
C -4.6903 -0.0606 8.1814
C -3.1812 -0.0294 8.2158
C -2.442 -0.0142 7.0464
C -2.5238 -0.009 9.4823
C -1.4556 -0.0034 3.7482
O -2.6053 -0.0055 4.1565
N -1.2621 -0.0005 2.3383
C -2.4392 0.0005 1.5102
C -3.0111 -1.2129 1.1193
C -4.1457 -1.2093 0.3075
C -4.7072 0.0026 -0.1058
C -4.1352 1.2135 0.2957
C -3.0006 1.215 1.1078
Au 2.31 -0.0017 -0.2438
H 0.9143 -0.0011 6.2158
H 0.6978 0.004 8.3691
H 0.6127 -0.3826 10.7616
H -0.2703 1.0864 11.1935
H -0.7634 -0.6763 12.8863
H -1.2857 -1.7839 11.6005
H -3.2737 -0.7686 12.5865
H -2.595 0.8621 12.4512
H -5.1564 -0.8823 10.8574
H -4.9776 0.7485 11.5262
H -6.355 0.654 9.4044
H -4.9726 1.7636 9.3073
H -5.0515 0.3604 7.2316
H -5.0476 -1.107 8.2157
H -2.9544 -0.0175 6.0871
H -2.5572 -2.1481 1.451
H -4.593 -2.1559 -0.0038
H -5.595 0.0034 -0.7426
H -4.5742 2.161 -0.0247
H -2.5387 2.1494 1.4305
40
Energy=-2.2050847311250963
C 0.496 0.327 6.4238
C 1.4064 0.1707 5.2041
C 0.6351 0.0852 3.9162
C -0.7353 0.113 3.7906
N -1.116 0.0595 2.4781
C -0.0 0.0 1.7802
N 1.125 0.0 2.594
C 2.5377 -0.0463 2.0685
C 2.764 1.3275 1.3689
C 3.9122 1.6065 0.3585
C 3.6661 0.9116 -0.9942
C 3.8797 3.1295 0.1142
C 5.3117 1.238 0.8764
C 2.6648 -1.2926 1.1753
C 3.551 -0.2353 3.2036
S 0.0 0.0 0.0
H 1.1 0.3923 7.3413
H -0.117 1.2387 6.3562
H -0.1861 -0.5304 6.5305
H 2.0329 -0.723 5.3504
H 2.1035 1.0238 5.1775
H -1.4716 0.1764 4.5879
H 2.8479 2.0608 2.1888
H 1.8371 1.5855 0.8388
H 2.6525 1.1231 -1.3676
H 3.7795 -0.1785 -0.9349
H 4.3883 1.2754 -1.743
H 4.6332 3.4219 -0.6343
H 4.0887 3.6873 1.0413
H 2.8929 3.4498 -0.2566
H 5.4512 0.1502 0.9643
H 6.0802 1.6046 0.1768
H 5.5133 1.6914 1.86
H 2.0314 -1.2561 0.2812
H 2.3761 -2.1817 1.7559
H 3.7057 -1.4199 0.8501
H 3.3297 -1.1332 3.7941
H 4.543 -0.3728 2.7618
H 3.6077 0.6321 3.8702
Au -2.2872 0.3092 -0.2232
49
Energy=2.2198387227970477
C -5.7783 -1.3211 1.2098
C -4.6719 -0.3002 1.2903
C -4.8602 1.0026 0.7917
C -3.8779 1.9905 0.9132
C -4.0887 3.3806 0.3715
C -2.6649 1.6557 1.5364
C -2.444 0.3617 1.9966
C -3.4474 -0.6131 1.895
N -1.1669 0.0173 2.543
C -0.0 -0.0 1.7844
N 1.1854 0.0 2.2753
C 1.405 -0.0012 3.6532
O 2.5151 0.1982 4.1142
C 0.2287 -0.3387 4.5093
C 0.5256 -0.6502 5.8247
C -0.2107 -1.1081 6.9236
C 0.2033 -1.3206 8.2431
C -0.9017 -1.7703 8.9847
C -1.9602 -1.8274 8.0632
O -1.5514 -1.4478 6.8508
N -3.2502 -2.1679 8.1809
C -3.874 -2.5013 9.458
C -5.3232 -2.8221 9.0641
C -5.5492 -1.9718 7.8044
C -4.2085 -2.0701 7.0723
C -1.1193 -0.2206 3.9571
O -2.1698 -0.2439 4.5729
S 0.0 0.0 0.0
H -5.3891 -2.3472 1.284
H -6.4978 -1.181 2.035
H -6.3434 -1.232 0.2693
H -5.8077 1.2516 0.3051
H -3.9102 4.1409 1.1487
H -5.1103 3.5164 -0.0113
H -3.3864 3.591 -0.4522
H -1.8674 2.3955 1.6266
H -3.2625 -1.6096 2.298
H 1.5909 -0.5265 6.0495
H 1.2137 -1.1478 8.6091
H -0.9486 -2.0195 10.0405
H -3.8167 -1.6399 10.1499
H -3.3639 -3.3506 9.9427
H -6.0332 -2.6036 9.8743
H -5.4158 -3.8925 8.8181
H -5.7476 -0.9238 8.0829
H -6.3918 -2.3223 7.1914
H -3.9657 -1.2135 6.4267
H -4.1566 -2.9775 6.4427
Au -2.0282 -0.8887 -0.6808
21
Energy=-1.3176038883796342
S 0.0 0.0 0.0
C 0.0 0.0 1.8346
C 1.3728 0.0 2.5267
C 2.1234 1.3024 2.4184
C 3.2092 1.4697 1.4953
N 3.8666 2.5943 1.3157
C 3.4897 3.6613 2.0435
N 2.4338 3.5672 2.9761
C 1.7604 2.4004 3.1612
N 2.1963 4.7206 3.6126
C 3.0941 5.5737 3.0971
C 3.9231 4.9874 2.1243
Au 0.8795 2.0532 -0.5462
H -0.6271 0.8222 2.2112
H -0.5249 -0.9405 2.0737
H 1.9847 -0.8142 2.1093
H 1.2081 -0.2363 3.5922
H 3.5235 0.6069 0.8974
H 0.9572 2.4265 3.8998
H 3.1091 6.6029 3.4554
H 4.7291 5.4374 1.5531
21
Energy=-0.22279143846854307
Br 4.1043 1.7274 -0.2148
C 2.8648 1.5514 1.2667
C 2.5131 0.1108 1.6027
O 3.1687 -0.8492 1.3024
C 1.25 -0.0 2.4455
C 1.292 -0.0853 3.8419
I 3.1493 -0.0505 4.8809
C 0.1143 -0.1747 4.589
C -1.1169 -0.1784 3.9333
C -1.1886 -0.0952 2.5414
C -0.0 0.0 1.7907
S 0.0 0.0 0.0
C -2.5361 -0.0644 1.8639
F -2.8854 1.2302 1.581
F -3.4981 -0.5617 2.6833
H 3.3359 1.9964 2.1568
H 1.9603 2.1235 1.0262
H 0.1562 -0.2409 5.6769
H -2.0401 -0.2593 4.5086
Au -0.5633 2.181 -0.5035
H -2.5425 -0.6287 0.9191
29
Energy=-0.7740163111585252
C 2.3306 2.5192 1.2914
C 3.0483 1.5585 2.2373
C 2.5582 0.0993 2.1933
N 1.133 0.0 2.5492
C 0.6962 -0.0043 3.8703
C -0.6779 -0.0075 3.8316
N -1.093 -0.0073 2.5183
C -0.0 0.0 1.7726
S 0.0 0.0 0.0
C -1.6529 -0.019 4.9636
C 2.9016 -0.6114 0.9024
C 2.8044 -2.1098 0.8364
C 4.1568 -1.4481 0.8394
H 2.4302 2.2172 0.2382
H 2.7456 3.5343 1.3894
H 1.2548 2.5725 1.5155
H 4.1298 1.5435 2.0198
H 2.9428 1.9226 3.2729
H 3.0765 -0.4437 2.9999
H 1.4015 -0.0125 4.6977
Au -2.2718 0.3695 -0.2408
H -2.3139 0.8623 4.922
H -1.1359 -0.0175 5.9343
H -2.3003 -0.9101 4.917
H 2.6484 -0.0667 -0.0102
H 2.4839 -2.6293 1.744
H 2.4338 -2.5559 -0.0892
H 4.7669 -1.5242 1.7448
H 4.7348 -1.4333 -0.0882
23
Energy=2.403687469641085
C 3.6117 -0.0261 3.9823
O 2.3601 -0.1009 4.6204
C 1.2395 -0.0763 3.8468
C 0.0186 -0.1378 4.5581
C -1.1881 -0.1133 3.8792
O -2.4157 -0.1634 4.4702
C -2.4877 -0.2524 5.8744
C -1.228 -0.0407 2.4573
C -0.0 -0.0 1.7618
C 1.2314 -0.0 2.4616
S 0.0 0.0 0.0
N -2.4404 0.0673 1.8256
H 4.3726 -0.0548 4.7737
H 3.7242 0.9119 3.4083
H 3.7742 -0.8774 3.2961
H 0.0696 -0.1987 5.6438
H -2.0201 0.6222 6.3607
H -3.5538 -0.281 6.1353
H -1.9985 -1.1692 6.2495
H 2.1482 0.0522 1.8783
Au -0.8062 2.1241 -0.5144
H -2.4444 -0.1634 0.8371
H -3.2525 -0.196 2.3702
40
Energy=4.2969938278926945
F 6.8558 -7.0581 4.0288
C 6.5153 -5.829 4.4489
C 5.9585 -4.9293 3.5431
C 5.6063 -3.6562 3.9857
C 5.8118 -3.2786 5.3244
N 5.4331 -1.9743 5.6919
C 5.4007 -1.4155 6.939
O 5.7811 -1.9386 7.9705
C 4.7903 -0.0033 6.9299
N 3.3899 -0.0116 6.556
C 2.9707 -0.0145 5.2506
O 3.7118 -0.0441 4.272
C 1.4689 -0.0129 5.2601
C 0.8004 -0.0034 4.0721
S 1.6209 0.0 2.5088
C 0.0 0.0 1.7321
S 0.0 0.0 0.0
N -1.0375 -0.0011 2.4998
C -0.7035 -0.0009 3.856
O -1.52 0.0031 4.7499
C 1.0825 -0.0562 6.672
C -0.1399 -0.0975 7.3539
C -0.1363 -0.1751 8.7523
C 1.0634 -0.2215 9.4682
C 2.302 -0.1794 8.8091
C 2.2883 -0.0831 7.426
C 6.3736 -4.2009 6.2236
C 6.7231 -5.4772 5.779
H 5.8037 -5.2335 2.5067
H 5.1587 -2.9431 3.2883
H 5.071 -1.3905 4.9363
H 4.9026 0.4193 7.9342
H 5.3256 0.6339 6.2089
Au -2.299 -0.0096 -0.3187
H -1.0681 -0.0731 6.7891
H -1.0874 -0.2094 9.2873
H 1.0437 -0.2984 10.5577
H 3.2388 -0.2453 9.3638
H 6.5265 -3.9091 7.2596
H 7.1605 -6.2076 6.4621
