25
Energy=2.1077494210021697
C 4.6644 -1.0485 3.9085
O 3.4411 -0.6509 4.4838
C 3.4101 -0.0836 5.7098
C 4.5542 0.121 6.4903
C 4.4419 0.6658 7.7725
C 3.1897 0.9994 8.291
C 2.0544 0.7947 7.5105
C 2.127 0.2764 6.2018
C 0.8778 0.1411 5.4665
C 0.546 0.0225 4.1599
S 1.5203 -0.0 2.6904
C -0.0 0.0 1.7488
S 0.0 0.0 0.0
N -1.1154 -0.0178 2.3843
C -0.9297 -0.0097 3.7786
O -1.826 -0.0155 4.5883
H 5.1637 -1.8225 4.5163
H 4.4157 -1.4669 2.9243
H 5.3505 -0.1935 3.7777
H 5.5369 -0.1526 6.1081
H 5.3444 0.818 8.3691
H 3.0978 1.4134 9.2968
H 1.069 1.0519 7.9062
H -0.0189 0.1998 6.0955
Au 2.2504 0.0926 -0.5034
33
Energy=-0.5888835008419038
C -2.6604 3.5522 2.7358
C -3.1158 2.099 2.8255
C -3.4681 1.6301 4.2558
O -4.3807 2.5013 4.8929
C -4.1268 0.2504 4.2037
C -3.3242 -0.766 3.3827
C -2.9197 -0.1771 2.0274
N -2.2151 1.0867 2.2405
C -0.8554 1.1666 2.3792
O -0.2906 2.1418 2.8586
C 0.0 0.0 1.8493
C 1.4026 0.0 2.4562
C 1.4021 -0.2985 3.9558
S 0.0 0.0 0.0
H -1.8449 3.7809 3.431
H -2.3051 3.7816 1.7206
H -3.5275 4.1985 2.9432
H -4.0465 2.0254 2.237
H -2.5167 1.5684 4.8231
H -3.9246 3.329 5.0887
H -5.125 0.3904 3.753
H -4.2937 -0.1114 5.2302
H -3.9099 -1.6889 3.2399
H -2.4062 -1.0496 3.9274
H -2.3111 -0.8649 1.433
H -3.8163 0.0361 1.4223
H -0.4776 -0.9654 2.0793
H 1.8631 0.9811 2.2663
H 1.9992 -0.7508 1.9155
H 0.9336 -1.274 4.1727
H 0.8568 0.4784 4.5114
H 2.4304 -0.3322 4.3483
Au 0.6688 2.1582 -0.433
44
Energy=1.213533304509647
C -3.388 -0.0461 9.3399
C -2.0879 -0.0425 8.6076
C -1.8424 -0.0297 7.261
C -0.4127 -0.0318 7.0658
C 0.4054 -0.0232 5.9018
C 0.1922 -0.0121 4.5382
C -1.1174 -0.0043 3.8424
O -2.192 -0.0008 4.4222
N -1.1041 -0.0017 2.444
C 0.0 0.0 1.7756
S 0.0 0.0 0.0
N 1.2634 0.0 2.3367
C 1.4397 -0.0075 3.7421
O 2.5705 -0.0094 4.194
C 2.4431 0.0056 1.5116
C 3.0464 -1.204 1.1576
C 4.1821 -1.1802 0.3507
C 4.706 0.0381 -0.0922
C 4.1104 1.2562 0.2639
C 4.6599 2.5741 -0.2195
C 2.971 1.2217 1.0793
C 0.1645 -0.0462 8.3611
C 1.5896 -0.0547 8.7976
N -0.8502 -0.0525 9.2691
C -0.6583 -0.0671 10.7046
H -3.5161 -0.9425 9.9717
H -3.511 0.8379 9.9898
H -4.2083 -0.0364 8.6099
H -2.5701 -0.0194 6.4586
H 1.4775 -0.027 6.1224
Au -2.3101 -0.0128 -0.2423
H 2.6201 -2.1429 1.5135
H 4.665 -2.117 0.0639
H 5.597 0.0441 -0.7256
H 5.6284 2.4467 -0.7245
H 3.9685 3.0521 -0.9338
H 4.8002 3.2788 0.6156
H 2.4775 2.1484 1.3804
H 2.2677 -0.0464 7.936
H 1.83 0.8251 9.4194
H 1.8258 -0.9497 9.3989
H -0.1023 -0.9638 11.0211
H -1.6321 -0.0708 11.2065
H -0.0997 0.8214 11.0391
17
Energy=1.1169799372236737
C -0.8513 0.3707 6.7591
O 0.2941 0.2829 5.9371
C 0.1434 0.1912 4.6053
C -1.0953 0.1711 3.9509
C -1.1641 0.0849 2.5578
Cl -2.7442 0.0417 1.8306
C -0.0 0.0 1.7692
C 1.2391 0.0 2.4422
C 1.3186 0.1041 3.8229
Cl 2.868 0.1162 4.6144
S 0.0 0.0 0.0
H -0.4856 0.4384 7.7914
H -1.449 1.2693 6.5268
H -1.4914 -0.5232 6.6595
H -2.0251 0.2269 4.513
H 2.1565 -0.0806 1.859
Au -0.8838 -2.0688 -0.5237
34
Energy=1.4565814895598765
O -8.2201 0.384 -0.5475
C -6.953 0.2769 -0.0947
C -6.4883 0.9163 1.0611
C -5.1693 0.7758 1.4837
C -4.2823 -0.0245 0.7469
C -2.8958 -0.2183 1.1535
N -2.443 0.2736 2.2496
N -1.1273 0.1018 2.5633
C 0.0 0.0 1.7549
S 0.0 0.0 0.0
N 1.0729 0.0 2.5226
N 0.6803 0.0984 3.8203
C -0.6323 0.1682 3.8658
C -1.405 0.2736 5.1076
C -0.6879 0.5662 6.2858
C -1.3346 0.6679 7.5122
C -2.7188 0.4756 7.5771
Cl -3.5389 0.6054 9.114
C -3.4492 0.1787 6.4257
C -2.7946 0.0774 5.1977
C -4.747 -0.664 -0.4201
C -6.0637 -0.5263 -0.8491
O -6.5618 -1.1189 -1.9602
H -8.7263 0.9548 0.0458
H -7.1828 1.5405 1.6317
H -4.8119 1.2865 2.3783
H -2.2642 -0.8239 0.4847
Au 2.282 0.4027 -0.2087
H 0.3908 0.7102 6.2155
H -0.7756 0.8974 8.4204
H -4.5269 0.0237 6.4929
H -3.3694 -0.1551 4.3044
H -4.0609 -1.2851 -1.0047
H -5.8654 -1.6326 -2.3894
39
Energy=1.3669454849366098
C 6.7387 2.1489 14.4316
C 6.191 1.7602 13.0994
C 4.9207 1.9035 12.5835
C 4.9291 1.3606 11.2514
C 6.2539 0.8937 11.0084
N 6.9911 1.1513 12.1469
C 6.6111 0.3018 9.7941
C 5.6435 0.1689 8.8026
C 4.3203 0.6256 9.0249
C 3.9652 1.2174 10.2423
N 3.306 0.5028 8.05
C 3.3794 0.0061 6.7756
O 4.4035 -0.3994 6.2475
C 2.0681 0.0111 6.0261
C 0.8068 -0.0066 6.6644
C -0.3562 -0.0116 5.9088
C -0.2858 -0.0013 4.5077
C 0.9718 -0.0008 3.8519
C 2.1409 -0.0031 4.6363
N 1.0863 -0.0 2.4739
C 0.0 0.0 1.7696
N -1.2595 0.0002 2.3256
C -1.5171 -0.0014 3.7054
O -2.6573 -0.0024 4.1256
S 0.0 0.0 0.0
H 7.1248 1.2745 14.9839
H 5.9554 2.6156 15.0438
H 7.5689 2.8702 14.3357
H 4.0765 2.3497 13.1046
H 7.9694 0.9291 12.2699
H 7.6287 -0.0528 9.614
H 5.8856 -0.2803 7.8436
H 2.9411 1.5657 10.4067
H 2.4153 0.8999 8.3197
H 0.734 -0.054 7.753
H -1.3425 -0.0335 6.3758
H 3.1157 -0.0174 4.1494
H -2.0825 -0.0009 1.7288
Au 2.2951 -0.0188 -0.3058
15
Energy=1.4466622414233399
Cl 0.1901 -2.0301 6.6435
C 0.5246 -0.3637 6.0443
O 1.0036 0.4593 6.7503
C 0.2671 -0.2234 4.574
C 1.403 -0.1156 3.7627
C 1.2677 -0.0 2.3871
C 0.0 -0.0 1.7763
C -1.1539 -0.0826 2.6003
C -1.0147 -0.1786 3.9985
I -2.6838 -0.1727 5.3171
I -3.0746 -0.0353 1.704
S 0.0 0.0 0.0
H 2.3934 -0.1213 4.2217
H 2.1493 0.0944 1.752
Au -1.0588 1.9994 -0.4982
26
Energy=2.887457362586756
C 6.9209 -0.1543 6.5566
O 5.6933 -0.271 5.8704
C 4.5436 0.1192 6.4991
C 4.4504 0.6453 7.7837
C 3.185 0.9787 8.2938
C 2.049 0.7904 7.5224
C 2.1189 0.2786 6.2019
C 0.8701 0.1467 5.466
C 0.543 0.0279 4.1587
S 1.5199 -0.0 2.6901
C 0.0 -0.0 1.7488
S 0.0 0.0 0.0
N -1.1171 -0.014 2.3821
C -0.9336 -0.0041 3.7757
O -1.83 -0.0073 4.5853
C 3.388 -0.0739 5.7093
O 3.5328 -0.6288 4.4881
H 7.1381 0.8964 6.8171
H 6.9254 -0.7607 7.4793
H 7.6995 -0.5252 5.8777
H 5.3421 0.7903 8.3933
H 3.1019 1.3839 9.3039
H 1.0668 1.0498 7.9225
H -0.0274 0.2043 6.0937
Au 2.2522 0.0356 -0.5021
H 4.482 -0.791 4.3559
23
Energy=1.2596493191610105
C -2.1289 0.0563 6.0942
O -2.1783 0.0524 4.6839
C -1.0141 0.0351 3.9918
C -1.133 0.0417 2.5925
C -0.0 -0.0 1.7828
S 0.0 0.0 0.0
C 1.291 0.0 2.3675
C 1.4093 0.025 3.7692
C 0.2512 0.0188 4.5764
C 2.6812 0.0442 4.5469
O 2.7835 -0.317 5.6791
Cl 4.1112 0.7695 3.7325
O 2.3548 -0.0075 1.5181
C 2.9802 -1.2668 1.3
H -1.6045 0.9479 6.4814
H -1.6302 -0.8472 6.4876
H -3.1694 0.0726 6.4433
H -2.1335 0.0667 2.1604
Au -2.098 -0.7353 -0.5859
H 0.3885 0.0138 5.6552
H 3.421 -1.6608 2.2308
H 3.7829 -1.0971 0.5708
H 2.2608 -1.9955 0.8904
20
Energy=3.309896332750814
O 0.8394 -0.007 11.1297
N 1.4981 -0.0063 10.0975
O 2.7151 -0.0068 10.0142
C 0.7436 -0.0049 8.8757
C -0.615 -0.0041 8.67
C -0.7806 -0.0027 7.2625
C 0.4952 -0.0027 6.7082
C 1.0907 -0.0017 5.403
C 0.5314 -0.0008 4.1641
S 1.5135 0.0 2.6945
C 0.0 -0.0 1.7443
S 0.0 0.0 0.0
N -1.1092 -0.0004 2.3919
C -0.9328 -0.0006 3.7817
O -1.8428 -0.0006 4.5807
O 1.4227 -0.004 7.7234
H -1.3751 -0.0045 9.4456
H -1.6994 -0.0018 6.6872
H 2.1838 -0.0019 5.4581
Au 2.2484 0.0053 -0.5186
33
Energy=0.45506331724157595
O -3.4679 0.3679 2.9368
C -2.6027 -0.105 2.2143
C -1.1509 -0.0484 2.629
C -0.9359 -0.0041 4.0135
C 0.3577 0.0011 4.526
C 1.4179 -0.0273 3.6171
N 1.236 0.0 2.2987
C 0.0 0.0 1.8013
S 0.0 0.0 0.0
N -2.8744 -0.7598 1.0484
C -4.1261 -0.8518 0.4463
N -4.1972 -1.3647 -0.7835
N -5.4967 -1.3201 -1.0936
C -6.2778 -0.7897 -0.1023
C -5.3969 -0.4671 0.9352
C -7.7284 -0.6397 -0.2155
C -8.509 -0.098 0.828
F -7.902 0.2906 1.9546
C -9.8882 0.0567 0.751
C -10.5579 -0.3368 -0.4081
C -9.8397 -0.8795 -1.4746
C -8.4636 -1.0166 -1.3569
F -7.7998 -1.5457 -2.409
H -1.8129 0.0161 4.6629
H 0.5425 0.0234 5.6016
H 2.4565 -0.0532 3.966
Au -1.4216 1.7312 -0.5627
H -2.0916 -1.0654 0.4707
H -5.8139 -1.6646 -1.9894
H -5.6131 -0.0234 1.8958
H -10.4121 0.4848 1.6065
H -11.6407 -0.2208 -0.4807
H -10.3222 -1.2003 -2.3985
34
Energy=1.3680750734465381
F -4.0474 -2.9903 -2.3177
C -3.6574 -2.2224 -1.2973
C -2.7653 -2.743 -0.3618
C -2.3496 -1.9309 0.6903
C -2.8356 -0.6174 0.8094
C -3.762 -0.1316 -0.128
C -4.1647 -0.9253 -1.1963
C -2.4944 0.2401 1.9771
O -3.3069 0.9724 2.4996
N -1.1836 0.1038 2.4961
C 0.0 -0.0 1.7534
S 0.0 0.0 0.0
N 1.0787 -0.0 2.4803
C 0.7023 0.1172 3.8275
O 1.4849 0.1073 4.7548
C -0.7952 0.2572 3.8699
C -1.6829 0.472 4.8749
C -1.5442 0.6169 6.3191
C -0.3416 0.5148 7.0532
C -0.3493 0.6724 8.4381
C -1.5401 0.9321 9.1244
C -2.7398 1.035 8.413
C -2.7397 0.8787 7.03
H -2.4084 -3.7679 -0.4718
H -1.6531 -2.3247 1.4321
H -4.1541 0.8794 -0.0072
H -4.8676 -0.5657 -1.9493
Au 2.3066 0.1846 -0.2362
H -2.7145 0.583 4.5381
H 0.5874 0.3157 6.5226
H 0.5905 0.5907 8.9895
H -1.534 1.0535 10.2104
H -3.676 1.2374 8.9383
H -3.6785 0.96 6.4764
14
Energy=0.5420213410868464
N -3.5759 0.0001 1.8287
C -2.4724 -0.0 2.2026
C -1.1176 -0.0001 2.6475
C 0.0 0.0 1.7628
S 0.0 0.0 0.0
C 1.2858 -0.0 2.3478
C 1.4669 -0.0002 3.7238
C 0.3683 -0.0003 4.5955
C -0.9053 -0.0003 4.0444
F -1.9792 -0.0004 4.8287
I 0.6247 -0.0007 6.6885
Au -2.2262 0.002 -0.6267
H 2.16 0.0002 1.6945
H 2.4782 -0.0002 4.1339
51
Energy=3.0222216628686165
C -4.4961 0.0347 8.8325
C -3.1335 0.0228 8.2285
C -2.7252 0.0178 6.9234
C -1.2794 0.0091 6.9002
C -0.3183 0.0037 5.8515
C -0.3172 0.0022 4.4716
C -1.423 0.0011 3.5483
O -2.6778 0.0002 4.01
N -1.283 -0.0001 2.2519
C -0.0 0.0 1.7668
S 0.0 0.0 0.0
N 1.1119 0.0 2.4437
C 1.054 0.0006 3.8307
O 2.0702 0.0004 4.5083
C -0.8605 0.0088 8.2542
C 0.4992 -0.0046 8.8639
N -1.9815 0.0179 9.0324
C -1.9893 0.0236 10.4589
C -1.9456 1.2255 11.168
C -1.9422 1.2157 12.5587
C -1.9934 0.0151 13.3078
N -1.9776 0.0453 14.6938
C -1.125 -0.8628 15.4766
C -0.3516 -0.077 16.5296
O -1.2042 0.6009 17.4336
C -2.4379 1.016 16.877
C -2.3339 1.2812 15.3817
C -2.1005 -1.186 12.5552
Br -2.446 -2.8695 13.3914
C -2.0724 -1.1806 11.1616
H -4.6539 0.9189 9.4724
H -4.6754 -0.8521 9.463
H -5.2526 0.0475 8.0365
H -3.3713 0.0212 6.0558
H 0.719 0.0016 6.2047
H -3.2413 -0.0019 3.2152
Au 2.2861 0.0019 -0.3355
H 0.6351 -0.8867 9.5109
H 1.2798 -0.0224 8.0943
H 0.6619 0.883 9.4968
H -1.896 2.1704 10.6237
H -1.8726 2.166 13.0855
H -0.4115 -1.3675 14.8109
H -1.721 -1.6479 15.97
H 0.3322 0.6379 16.0301
H 0.2696 -0.7689 17.12
H -3.222 0.2546 17.0568
H -2.7426 1.938 17.3963
H -3.3011 1.6472 15.001
H -1.5916 2.0887 15.2185
H -2.153 -2.12 10.6138
28
Energy=-1.0784525764571578
C -3.0181 -1.2979 1.5234
C -2.5119 0.063 1.9926
N -1.149 0.0147 2.5058
C -0.0 0.0 1.7577
S 0.0 0.0 0.0
N 1.0546 0.0 2.5534
N 0.6102 0.0101 3.8422
C -0.7044 0.0182 3.8222
C -1.5851 0.0323 4.9893
C -2.8128 -0.66 5.1942
C -3.2018 -0.3317 6.4841
C -4.386 -0.7404 7.2948
N -2.2315 0.5037 6.9626
C -2.1824 1.1292 8.2661
N -1.2547 0.7373 6.0743
H -4.0487 -1.2105 1.1458
H -3.0093 -2.0305 2.3447
H -2.386 -1.689 0.7119
H -3.1473 0.4708 2.7904
H -2.526 0.7842 1.1601
Au 2.3147 0.1341 -0.1752
H -3.3284 -1.3364 4.5185
H -5.0299 -1.4119 6.7114
H -4.0887 -1.2725 8.2142
H -4.9931 0.1282 7.6014
H -2.1837 0.3726 9.0664
H -3.04 1.8045 8.4151
H -1.2523 1.7066 8.3142
41
Energy=0.7302688480497337
C 2.7993 -4.371 8.7571
C 3.5961 -3.0763 8.6102
C 4.3798 -2.7233 9.893
C 4.596 -1.2053 10.0614
C 5.8028 -0.8924 10.9439
C 4.7142 -0.5242 8.6993
N 3.4907 -0.7155 7.9152
C 2.6923 -1.9091 8.1985
C 3.3529 0.0722 6.8027
O 4.2332 0.8449 6.4477
C 2.0606 -0.0081 6.0291
C 0.8006 0.0068 6.6672
C -0.3613 0.0181 5.9102
C -0.2889 0.0045 4.5087
C 0.9691 0.0025 3.854
C 2.1377 0.0104 4.6399
N 1.0854 -0.0 2.4755
C -0.0 -0.0 1.7705
N -1.2599 -0.001 2.3251
C -1.5188 0.0016 3.7049
O -2.6601 0.0012 4.1228
S 0.0 0.0 0.0
H 2.0109 -4.262 9.521
H 2.3149 -4.6603 7.8108
H 3.4515 -5.2014 9.0703
H 4.3209 -3.2083 7.7879
H 5.3553 -3.2385 9.8729
H 3.846 -3.1111 10.7775
H 3.6996 -0.7832 10.5497
H 5.899 0.189 11.1289
H 6.7359 -1.2376 10.4676
H 5.7202 -1.3974 11.9194
H 4.8856 0.5563 8.8055
H 5.5905 -0.9169 8.1481
H 2.1221 -2.1794 7.3013
H 1.9552 -1.7172 9.0014
H 0.7441 0.03 7.7564
H -1.3487 0.0398 6.3751
H 3.1085 0.04 4.145
H -2.0825 0.0018 1.7277
Au 2.2933 0.0551 -0.3094
29
Energy=-0.6783894173885221
C 3.7845 3.0613 -0.6009
O 4.6665 2.054 -0.147
C 4.1965 1.1016 0.6845
C 5.1127 0.1021 1.0608
C 4.6936 -0.9205 1.9032
Br 5.9292 -2.2792 2.4037
C 3.3814 -0.9899 2.3851
C 2.4957 0.0239 2.0214
C 2.8865 1.0737 1.1806
N 1.16 0.0 2.5089
C -0.0 -0.0 1.759
S 0.0 0.0 0.0
N -1.0429 -0.0262 2.5602
N -0.584 -0.0304 3.8526
C 0.7237 -0.0187 3.8315
C 1.6148 0.0664 5.0272
C 2.367 1.4 5.135
H 3.4188 3.6864 0.2327
H 2.9182 2.631 -1.1325
H 4.3596 3.689 -1.2933
H 6.1313 0.148 0.6766
H 3.0543 -1.8179 3.0114
H 2.161 1.8434 0.9288
Au -2.308 -0.1459 -0.202
H 2.3348 -0.768 5.0321
H 0.9565 -0.0743 5.8965
H 3.0488 1.5497 4.2839
H 1.6608 2.2442 5.159
H 2.9695 1.4299 6.0556
25
Energy=-0.4567868973999544
F -3.4882 1.9429 1.9921
C -2.8647 1.0139 1.2232
O -2.4292 -0.0288 2.0131
C -1.1678 0.0317 2.576
C 0.0 -0.0 1.7801
S 0.0 0.0 0.0
C 1.2441 -0.0 2.4294
C 1.3264 0.0011 3.8178
C 0.1637 -0.0427 4.5917
C -1.0982 -0.0332 3.9723
C -2.3897 -0.2096 4.7732
O -2.7038 -1.3224 5.1195
C -3.1877 1.026 5.0872
C 0.2882 -0.1554 6.0951
F 0.069 -1.4059 6.522
F -0.5973 0.6413 6.7291
F 1.5127 0.2024 6.516
F -3.7766 0.51 0.3822
H -2.0532 1.5023 0.6657
Au -1.3725 -1.7944 -0.4936
H 2.1507 -0.0253 1.8229
H 2.3004 0.0034 4.307
H -3.5793 1.4577 4.1553
H -2.5381 1.7806 5.5554
H -4.0165 0.7649 5.7582
19
Energy=2.476547226690212
F -2.4632 2.3117 5.3273
C -3.1554 1.571 4.4309
O -2.6192 0.3062 4.3362
C -1.3626 0.2128 3.7892
C -1.2497 0.1035 2.4071
C -0.0 0.0 1.7687
S 0.0 0.0 0.0
C 1.1504 0.0 2.5903
C 1.0392 0.0927 3.9749
C -0.2086 0.2018 4.6038
C -0.3323 0.2384 6.0873
O -1.2672 -0.0937 6.7345
Cl 1.1584 0.8739 6.9194
Cl 2.7496 -0.1338 1.916
F -4.4055 1.4315 4.8665
H -3.1422 2.1087 3.4642
H -2.1595 0.0823 1.8057
Au 1.2734 -1.8518 -0.5365
H 1.9419 0.088 4.583
23
Energy=1.3997112401441976
C -0.0881 -1.1897 6.7621
C 0.2396 0.1686 6.1258
C 0.1868 0.1394 4.6192
C 1.3333 0.0817 3.8193
C 1.247 0.0 2.4291
C 0.0 0.0 1.7849
C -1.1841 0.0843 2.5576
C -1.0396 0.123 3.945
F -2.1654 0.1578 4.6986
C -2.5682 0.075 1.9558
O -3.0554 -1.2423 1.7056
S 0.0 0.0 0.0
H 0.6176 -1.9644 6.4234
H -0.0334 -1.1335 7.8607
H -1.1039 -1.5136 6.4892
H 1.2446 0.4937 6.4379
H -0.4701 0.9242 6.5005
H 2.3149 0.0872 4.3005
H 2.1519 -0.0722 1.8239
H -2.5385 0.5772 0.9802
H -3.2638 0.6234 2.6116
H -3.023 -1.7326 2.5383
Au -1.2023 -1.9195 -0.4687
