19
Energy=2.1371503050849325
C -3.6393 -0.1614 3.9522
O -2.3929 -0.1984 4.6059
C -1.2731 -0.1306 3.8448
C -1.2269 -0.0457 2.4578
C -0.0 -0.0 1.7597
S 0.0 0.0 0.0
C 1.2282 -0.0 2.476
C 1.1752 -0.0827 3.884
C -0.0398 -0.1499 4.5372
F -0.0634 -0.2323 5.8692
N 2.4229 0.1474 1.8196
H -3.775 0.7762 3.3828
H -4.4067 -0.2199 4.735
H -3.7643 -1.0145 3.2605
H -2.1426 -0.0232 1.8693
Au 0.596 2.1854 -0.5382
H 2.0877 -0.0874 4.483
H 2.4029 -0.04 0.8211
H 3.2712 -0.107 2.309
20
Energy=1.6867696030542505
N 3.7513 -0.1487 4.8659
C 2.6871 -0.1433 4.4043
C 1.3885 -0.136 3.7992
C 1.2545 -0.0 2.4124
C 0.0 0.0 1.7821
S 0.0 0.0 0.0
C -1.1513 -0.1434 2.5981
C -1.0241 -0.2755 3.9884
C 0.2308 -0.2761 4.5941
O 0.4265 -0.3894 5.9366
C -0.5422 -0.9799 6.7209
F 0.0209 -1.2372 7.8968
F -1.5708 -0.1236 6.9204
C -2.5252 -0.0917 2.0142
O -2.8943 0.5798 1.1089
Cl -3.6942 -1.2046 2.842
H 2.1497 0.1018 1.7988
Au -0.7002 2.1391 -0.5117
H -1.9243 -0.3558 4.5933
H -0.9372 -1.9061 6.2653
47
Energy=0.6771032641305283
S 0.0 0.0 0.0
C 0.0 -0.0 1.7746
N -1.1077 -0.0002 2.4637
C -0.9763 -0.0011 3.8107
S -2.3485 -0.003 4.8915
C -1.2859 -0.0029 6.2878
C 0.0428 0.0035 5.9443
C 0.2262 -0.0028 4.5189
C 1.4665 -0.0026 3.776
O 2.5997 -0.003 4.2188
N 1.2532 -0.0 2.3529
C 2.4307 0.0016 1.5239
C 3.0011 -1.2123 1.1331
C 4.1393 -1.2078 0.3263
C 4.7044 0.0046 -0.0804
C 4.1333 1.2155 0.3223
C 2.9951 1.2171 1.1292
C 1.1237 -0.0095 6.9913
C 0.5216 0.2756 8.3797
N -0.7327 -0.4291 8.6343
C -1.7769 0.0095 7.7148
C -0.5901 -1.879 8.6918
C -1.7867 -2.5541 9.3275
C -2.3636 -2.0232 10.4911
C -3.4496 -2.6556 11.0974
C -3.9772 -3.8297 10.5483
C -3.4135 -4.3621 9.3869
C -2.3271 -3.7239 8.7799
Au -2.29 -0.0037 -0.3335
H 2.5455 -2.1478 1.4616
H 4.5874 -2.154 0.0155
H 5.5958 0.0058 -0.7119
H 4.5767 2.163 0.0084
H 2.535 2.1514 1.4548
H 1.634 -0.9886 6.9746
H 1.9061 0.723 6.7412
H 1.2428 0.0146 9.1701
H 0.3182 1.3558 8.4733
H -2.0964 1.0303 7.9957
H -2.6593 -0.6367 7.838
H -0.4059 -2.338 7.6977
H 0.3069 -2.0911 9.2997
H -1.9544 -1.0974 10.9011
H -3.8894 -2.2312 12.0036
H -4.8287 -4.3239 11.0225
H -3.8242 -5.2738 8.946
H -1.894 -4.1373 7.8646
28
Energy=-0.5892474695382256
C 5.4597 -0.2557 4.8945
C 4.5791 0.9554 5.1468
O 3.3693 0.8943 4.3707
C 2.3727 0.1395 4.8443
O 2.3874 -0.4006 5.9265
C 1.1804 0.0998 3.9333
C -0.0631 0.1499 4.5792
C -1.2478 0.1449 3.8558
C -1.2458 0.0701 2.4582
C -0.0 0.0 1.779
C 1.2033 0.0 2.531
Br 2.8547 -0.2749 1.6236
S 0.0 0.0 0.0
C -2.5631 0.088 1.7218
C -2.9482 1.4854 1.2172
H 6.4094 -0.1492 5.4423
H 5.6842 -0.3589 3.8223
H 4.9642 -1.1737 5.2421
H 4.3158 1.0387 6.2115
H 5.0676 1.884 4.8205
H -0.0716 0.1917 5.6695
H -2.2033 0.1905 4.3835
Au 0.5538 -2.1882 -0.495
H -3.3457 -0.2817 2.4037
H -2.513 -0.6042 0.8682
H -3.0103 2.2049 2.049
H -2.2039 1.8593 0.498
H -3.9262 1.4607 0.7114
14
Energy=-0.3098339022399273
N -3.4698 -0.0246 1.1109
C -2.4651 -0.057 1.6909
C -1.2494 -0.0908 2.4515
C -1.2878 -0.2048 3.8564
I -3.1243 -0.3647 4.8957
C -0.1018 -0.2039 4.5936
C 1.1231 -0.0926 3.9397
C 1.1775 -0.0 2.5475
C -0.0 -0.0 1.7713
S 0.0 0.0 0.0
Cl 2.7407 0.1438 1.8033
H -0.1309 -0.2876 5.6803
H 2.0529 -0.0865 4.5101
Au 0.9045 2.0679 -0.4878
24
Energy=0.0014161104232820832
C 3.5797 -1.9011 3.2398
O 2.9629 -1.4509 4.4235
C 2.5166 -0.1104 4.4217
C 1.1474 -0.0147 3.7746
C -0.0281 -0.0168 4.5328
C -1.2393 -0.004 3.8508
C -1.2493 0.0011 2.447
C 0.0 0.0 1.7664
N 1.1517 0.0 2.4401
S 0.0 0.0 0.0
C -2.4867 0.0113 1.7285
N -3.5002 0.0188 1.1616
O 2.425 0.3317 5.7261
C 3.6557 0.3859 6.4183
H 4.0088 -2.8901 3.4547
H 2.8653 -1.9912 2.403
H 4.3934 -1.2189 2.9221
H 3.2331 0.5036 3.8294
H 0.0292 -0.0204 5.6198
H -2.1892 0.0006 4.389
Au 2.2811 -0.034 -0.3778
H 4.3723 1.0552 5.9038
H 4.1098 -0.6134 6.5114
H 3.4472 0.789 7.4183
28
Energy=4.211593477949075
S 0.0 0.0 0.0
C 0.0 -0.0 1.7407
N -1.038 -0.0001 2.5078
C -0.7159 -0.001 3.874
O -1.5498 -0.0035 4.758
C 0.7675 0.0011 4.096
C 1.4622 0.0045 5.2685
C 1.0202 0.0065 6.6265
C -0.1832 -0.0075 7.3195
C 0.1449 -0.0029 8.6959
C 1.5278 0.0118 8.782
O 2.0508 0.0206 7.5386
C 2.4104 0.0491 9.945
C 1.9266 0.6604 11.1219
C 2.6878 0.7243 12.2841
C 3.9751 0.1795 12.3001
C 4.4811 -0.4331 11.1547
C 3.7098 -0.5052 9.9908
Cl 4.4042 -1.3504 8.6292
S 1.5969 0.0 2.5297
Au -2.3009 -0.002 -0.2969
H 2.5549 0.0053 5.1995
H -1.1597 -0.0277 6.849
H -0.5485 -0.0333 9.5326
H 0.9341 1.1135 11.0996
H 2.2819 1.2107 13.1734
H 4.5881 0.2291 13.2026
H 5.4785 -0.8746 11.1497
34
Energy=3.2579424026073633
O -1.4901 0.1808 4.8497
C -0.7349 0.1246 3.9016
C 0.7641 0.0944 3.7868
C 1.7469 0.1289 4.7348
C 1.7448 0.2024 6.1851
C 0.5878 0.265 6.9978
C 0.6996 0.3327 8.3821
C 1.9664 0.3388 8.9681
C 3.1314 0.2789 8.2017
C 3.0117 0.2113 6.8202
N 2.08 0.4104 10.4359
O 3.2032 0.4143 10.9155
O 1.0447 0.4613 11.0811
N 1.1009 -0.0 2.4355
C -0.0 0.0 1.7516
N -1.1519 0.0763 2.5599
C -2.5112 0.144 2.1549
C -3.3157 -1.0029 2.2316
C -4.6411 -0.9496 1.7861
C -5.1596 0.2438 1.2717
C -4.3578 1.3875 1.2142
C -3.0347 1.3414 1.6587
S 0.0 0.0 0.0
H 2.7439 0.0896 4.2851
H -0.3953 0.2596 6.5298
H -0.1812 0.3814 9.0211
H 4.1002 0.2862 8.699
H 3.9137 0.1637 6.2063
H -2.8968 -1.9208 2.6475
H -5.2697 -1.8406 1.8487
H -6.1938 0.2834 0.9227
H -4.7636 2.3213 0.8195
H -2.3919 2.2212 1.6056
Au -1.9185 -1.2147 -0.4864
25
Energy=1.57330074649298
C 0.1926 -0.0581 8.229
C 0.7107 -0.0657 6.806
O -0.409 -0.0108 5.9316
C -0.2177 -0.0057 4.5936
C 1.0386 -0.0454 3.9816
C 1.1549 0.0 2.5835
C 2.5547 -0.0387 2.0696
O 3.3898 -0.8163 2.4093
Cl 2.9761 1.3166 0.9661
C 0.0 0.0 1.7773
C -1.2533 0.002 2.42
C -1.3917 0.0286 3.8049
C -2.7342 0.0576 4.4778
S 0.0 0.0 0.0
H -0.4596 -0.9261 8.4087
H -0.3871 0.8564 8.4255
H 1.0325 -0.099 8.9389
H 1.2975 -0.9802 6.6025
H 1.3709 0.8014 6.6199
H 1.9506 -0.0991 4.5733
H -2.1495 -0.0283 1.7968
H -2.8614 -0.8143 5.1396
H -3.5484 0.0641 3.7402
H -2.8313 0.9481 5.1197
Au 1.1815 -1.9065 -0.5365
32
Energy=0.33856800046005037
Cl -1.3119 -2.5794 5.5202
C -1.862 -0.9592 5.8017
C -2.7845 -0.6283 6.857
C -3.3558 -1.4561 7.8403
C -4.2366 -0.9043 8.7615
C -4.559 0.4675 8.7184
C -4.0061 1.304 7.7537
C -3.1192 0.7497 6.8212
S -2.2979 1.5857 5.5213
C -1.5041 0.0996 5.0131
C -0.6355 0.079 3.8378
N 0.6809 0.0678 3.812
N 1.0778 -0.0 2.5107
C 0.0 -0.0 1.7488
N -1.1305 0.0644 2.5498
C -2.4941 -0.0284 2.155
C -3.227 -1.1727 2.4929
C -4.559 -1.2775 2.0849
C -5.1475 -0.2528 1.338
C -4.4056 0.8844 1.0034
C -3.0771 1.0028 1.4139
S 0.0 0.0 0.0
H -3.0971 -2.5163 7.8649
H -4.6844 -1.5381 9.5299
H -5.253 0.8816 9.4532
H -4.2567 2.3662 7.7223
H -2.7512 -1.9646 3.0732
H -5.137 -2.1647 2.3527
H -6.1881 -0.3392 1.0175
H -4.8642 1.6864 0.421
H -2.4814 1.8784 1.1547
Au -1.4334 -1.7695 -0.4357
29
Energy=-0.39887296484694706
S 0.0 0.0 0.0
C -0.0 0.0 1.7567
N 1.0503 -0.0 2.5558
N 0.6001 0.0216 3.85
C -0.7029 0.0273 3.8176
N -1.1547 0.0154 2.5103
C -2.4914 0.0387 2.0743
C -3.5509 0.8188 2.6005
N -4.678 0.5872 1.9338
N -4.36 -0.3048 0.9833
C -3.0572 -0.6843 1.0322
C -5.3988 -0.8511 0.1214
C -5.951 -2.1677 0.626
C -5.9559 -3.3014 -0.1942
C -6.4719 -4.514 0.2739
C -6.9811 -4.6014 1.5708
C -6.9749 -3.472 2.3974
C -6.465 -2.2614 1.9282
Au 2.3128 0.0466 -0.2012
H -1.378 0.0253 4.6716
H -3.522 1.535 3.4202
H -2.6301 -1.4123 0.3483
H -4.9832 -0.9693 -0.8895
H -6.1833 -0.0824 0.0794
H -5.5526 -3.2374 -1.2088
H -6.4702 -5.3924 -0.3759
H -7.3815 -5.5485 1.9399
H -7.3719 -3.5363 3.4133
H -6.4544 -1.378 2.5713
15
Energy=1.1316350855436603
Cl -3.0314 1.6614 1.3294
C -2.5345 -0.0422 1.6849
O -3.2219 -0.9583 1.393
C -1.2406 -0.0828 2.4421
C -1.2853 -0.1869 3.8317
F -2.475 -0.259 4.4373
C -0.1229 -0.1977 4.5957
C 1.1095 -0.0969 3.9516
C 1.1748 0.0 2.5583
C -0.0 0.0 1.7756
S 0.0 0.0 0.0
Br 2.8829 0.169 1.7534
H -0.1959 -0.2789 5.6812
H 2.0314 -0.0952 4.5339
Au 0.3287 2.2463 -0.425
24
Energy=0.6005040158174862
Cl -5.4316 -0.4035 4.4397
C -3.8882 -0.2838 3.5595
C -2.6727 -0.2826 4.4974
O -2.8152 -0.359 5.6966
C -1.3229 -0.1826 3.8483
C -1.2274 -0.093 2.4498
C -0.0 -0.0 1.7851
S 0.0 0.0 0.0
C 1.1794 -0.0 2.5558
C 1.0892 -0.0795 3.9444
C -0.1333 -0.1716 4.6259
C -0.1111 -0.2532 6.1274
C 2.5337 0.1275 1.903
F 3.5142 -0.3264 2.726
F 2.8051 1.4463 1.6509
H -3.825 -1.131 2.8617
H -3.9049 0.6394 2.9628
H -2.1223 -0.0904 1.8292
Au 0.4966 2.1956 -0.5092
H 2.0151 -0.0837 4.5215
H -0.5978 -1.1713 6.4874
H 0.9252 -0.226 6.493
H -0.6769 0.5722 6.5833
H 2.5862 -0.4167 0.9476
28
Energy=-3.5817796075653496
C -0.9512 3.7191 2.62
C -0.0813 2.548 2.1632
C -0.8357 1.2181 2.2882
C 0.0 -0.0 1.858
S 0.0 0.0 0.0
C 1.3673 -0.0 2.554
C 2.1676 1.3234 2.5473
C 1.2279 2.4778 2.9592
C 2.8103 1.6105 1.179
C 3.2952 1.2032 3.5852
H -0.4192 4.6777 2.511
H -1.8824 3.7805 2.0342
H -1.2306 3.6119 3.6823
H 0.164 2.7007 1.0982
H -1.7809 1.2513 1.722
H -1.1135 1.0666 3.348
H -0.5352 -0.9133 2.1531
Au 1.351 -1.7664 -0.554
H 1.99 -0.8187 2.1571
H 1.1615 -0.2546 3.6102
H 1.771 3.4351 2.876
H 0.9716 2.3619 4.0293
H 3.4292 2.5211 1.2363
H 2.0665 1.7409 0.384
H 3.4639 0.7768 0.8752
H 2.8952 1.0085 4.5937
H 3.982 0.3799 3.3287
H 3.8868 2.1319 3.63
21
Energy=2.5538064487933627
S 0.0 0.0 0.0
C -0.0 -0.0 1.7447
N -1.1037 -0.0 2.3941
C -0.9148 0.0001 3.7898
O -1.8042 0.0 4.6046
C 0.561 0.0003 4.159
S 1.5308 -0.0 2.6899
C 0.9411 0.0013 5.4561
C 2.2584 0.0021 6.0728
C 2.3292 0.0062 7.4828
C 3.5483 0.0077 8.1529
C 4.7338 0.0048 7.4117
Cl 6.269 0.0065 8.2359
C 4.6996 0.0004 6.0129
C 3.4736 -0.0009 5.3554
Au 2.2502 0.0014 -0.5138
H 0.0895 0.0019 6.1457
H 1.4016 0.0085 8.0599
H 3.5894 0.011 9.2428
H 5.6338 -0.002 5.4499
H 3.4717 -0.0046 4.2654
24
Energy=0.33614047375849404
F -2.5648 0.0037 4.3548
C -1.3424 0.0025 3.8045
C -1.2481 0.0023 2.4106
C -0.0 -0.0 1.7698
S 0.0 0.0 0.0
C 1.1548 -0.0 2.6009
C 1.0097 0.0041 4.0116
C -0.2353 0.0026 4.6452
S 2.5928 -0.0019 4.76
C 3.3281 -0.0046 3.148
N 2.4714 -0.0037 2.1779
C 4.8203 0.0713 2.9685
C 5.287 1.5367 3.0262
C 5.5801 -0.8071 3.9685
H -2.1695 0.0043 1.8265
Au 2.2981 0.0231 -0.406
H -0.3581 0.0033 5.7278
H 5.0022 -0.3085 1.9492
H 6.3681 1.6032 2.8272
H 5.0942 1.9683 4.0212
H 4.7572 2.1487 2.2812
H 5.4303 -0.4549 5.0025
H 6.6607 -0.7716 3.7624
H 5.2525 -1.8562 3.9164
28
Energy=-3.424445021944322
C -0.888 1.0944 2.4296
C -0.0 0.0 1.8451
C 1.3986 0.0 2.4702
C 2.3678 -1.0756 1.98
C 1.8015 -2.5045 2.1475
C 2.9066 -3.5773 2.2345
C 4.136 -3.1677 1.4204
C 4.7762 -1.8868 1.9971
C 3.7344 -0.9673 2.6671
S 0.0 0.0 0.0
H -0.9776 0.9744 3.5226
H -0.4525 2.0872 2.2299
H -1.8947 1.071 1.989
H -0.477 -0.98 2.0316
H 1.2724 -0.1011 3.5649
H 1.8453 0.9971 2.3012
H 2.5252 -0.8993 0.9026
H 1.134 -2.7226 1.298
H 1.175 -2.5513 3.0562
H 2.5178 -4.5507 1.8953
H 3.21 -3.7202 3.2864
H 3.8256 -2.9947 0.3754
H 4.8756 -3.9837 1.3888
H 5.2925 -1.3408 1.1901
H 5.5534 -2.1531 2.7328
H 3.6178 -1.2372 3.7321
H 4.0867 0.0774 2.6565
Au 1.0928 1.955 -0.5112
31
Energy=1.3506706256048833
N -3.604 0.057 1.9048
C -2.4831 0.0339 2.2269
C -1.1253 0.0053 2.6537
C -0.8591 -0.0392 4.0308
C 0.4405 -0.0799 4.5306
C 0.6235 -0.1575 5.9815
S 2.0768 -0.8019 6.7618
C 1.325 -0.5691 8.2971
C 0.0531 -0.057 8.1452
N -0.3076 0.1641 6.8371
C -0.8954 0.2682 9.2281
C -2.1136 0.8985 8.9203
C -3.0221 1.2192 9.9294
C -2.7321 0.9163 11.2623
C -1.5237 0.2869 11.579
C -0.6147 -0.0349 10.5723
C 1.4909 -0.0233 3.5608
N 1.2365 -0.0 2.25
C 0.0 0.0 1.7684
S 0.0 0.0 0.0
N 2.809 -0.0116 3.9029
H -1.6839 -0.056 4.7439
H 1.8553 -0.8127 9.2139
H -2.3306 1.1322 7.8778
H -3.964 1.7098 9.6721
H -3.4442 1.167 12.052
H -1.2893 0.0421 12.6177
H 0.3191 -0.5342 10.8381
Au -2.2299 0.0138 -0.5973
H 3.0984 0.301 4.8214
H 3.4539 0.1351 3.1346
21
Energy=-0.3732296995907889
N -4.6809 0.242 3.2027
C -3.7325 0.1476 2.5449
C -2.5347 0.0252 1.7173
C -1.2272 0.0732 2.4872
C -1.2153 0.1623 3.8777
C 0.0043 0.1759 4.5732
C 0.0132 0.2708 6.005
N 0.0281 0.3454 7.1633
C 1.2159 0.0918 3.8712
C 1.2354 -0.0 2.4774
C -0.0 0.0 1.7821
S 0.0 0.0 0.0
C 2.5473 -0.1196 1.7525
H -2.5489 0.813 0.9474
H -2.5947 -0.9224 1.1531
H -2.1529 0.2219 4.4318
H 2.1555 0.096 4.4262
Au -0.1603 -2.2501 -0.4843
H 2.6693 0.6797 1.0067
H 3.3899 -0.0806 2.4564
H 2.5987 -1.0698 1.1956
21
Energy=-0.5872951912490245
N -3.4134 -2.5294 1.3473
C -3.0376 -1.4543 1.5564
C -2.5483 -0.0985 1.8216
C -1.2048 -0.0991 2.5233
C 0.0 -0.0 1.7862
S 0.0 0.0 0.0
C 1.2365 -0.0 2.4509
C 1.2998 -0.0998 3.8358
C 0.1194 -0.1973 4.5709
C -1.1248 -0.2062 3.9223
Br -2.6915 -0.3863 4.9814
O 0.1661 -0.354 5.9448
C 0.4754 0.722 6.7124
F 1.7493 1.1134 6.5397
F 0.3092 0.3766 7.9772
F -0.3002 1.7747 6.4347
H -3.2962 0.4259 2.4344
H -2.4586 0.4242 0.8589
Au -0.0875 2.2495 -0.4977
H 2.1514 0.0706 1.8618
H 2.2548 -0.1123 4.3608
