19
Energy=0.08733970605461229
O 2.578 0.0001 4.0996
C 1.3281 0.0001 3.6111
N 1.2316 -0.0 2.2896
C 0.0 -0.0 1.7742
S 0.0 0.0 0.0
N -1.146 -0.0001 2.4538
C -1.0445 -0.0 3.7958
C 0.1955 0.0002 4.4436
C -2.2942 -0.0003 4.5399
C -3.6074 -0.0014 4.1361
C -4.3951 -0.0013 5.3287
C -3.5052 -0.0003 6.3695
O -2.234 0.0003 5.9037
H 2.5461 0.0003 5.0659
Au -2.2574 0.0036 -0.4533
H 0.2627 0.0003 5.5318
H -3.9443 -0.0022 3.1036
H -5.4799 -0.002 5.4059
H -3.6201 0.0002 7.4501
19
Energy=0.49144414987861385
F -2.5071 0.0715 4.4148
C -1.3175 0.0492 3.816
C -1.2444 0.0203 2.4301
C -0.0 0.0 1.7796
S 0.0 0.0 0.0
C 1.1697 -0.0 2.5722
C 1.0822 -0.0189 3.9671
C -0.1561 0.0268 4.5992
O -0.1847 -0.0364 5.976
C -0.8573 0.8845 6.7261
F -2.0422 0.422 7.1195
F -1.0492 2.027 6.0621
F -0.1332 1.1348 7.8116
C 2.5189 0.0317 1.939
O 2.9983 0.8812 1.2742
Cl 3.4611 -1.498 2.3111
H -2.1705 -0.0118 1.8549
Au 1.3196 -1.8368 -0.4774
H 1.9797 -0.0621 4.5852
31
Energy=0.3222326736027735
O -4.4349 -1.0543 1.6415
C -3.2273 -1.0145 1.495
N -2.4821 0.0264 2.0845
C -1.1575 -0.0509 2.5975
C -0.9997 -0.0803 3.9927
C 0.2604 -0.0854 4.585
C 1.402 -0.0552 3.7788
C 1.267 0.0 2.3948
C 0.0 0.0 1.7804
S 0.0 0.0 0.0
N -2.4834 -1.9098 0.7698
C -2.9559 -3.0242 0.07
C -4.2665 -3.5263 0.177
C -4.6367 -4.6592 -0.5417
C -3.7465 -5.3155 -1.3995
C -2.4447 -4.8003 -1.5062
C -2.0519 -3.6825 -0.7735
N -1.4199 -5.3889 -2.391
O -1.7903 -5.899 -3.431
O -0.2579 -5.2961 -2.0243
Cl -4.2908 -6.7496 -2.2113
H -3.1137 0.5587 2.6768
H -1.8972 -0.1126 4.6155
H 0.3494 -0.1172 5.6729
H 2.3978 -0.0575 4.227
H 2.1517 0.0569 1.758
Au -1.7073 1.486 -0.5069
H -1.5367 -1.616 0.5242
H -4.9816 -3.0194 0.8198
H -5.6469 -5.0586 -0.4417
H -1.0231 -3.3366 -0.8754
20
Energy=0.4401488384374125
N -3.3119 -1.1622 2.0869
C -2.5646 -0.0402 1.9099
O -3.003 0.9539 1.3499
C -1.1936 -0.1036 2.5397
C -1.1333 -0.2221 3.9324
C 0.0933 -0.2309 4.595
C 1.2541 -0.1213 3.84
C 1.2551 0.0 2.4442
C -0.0 0.0 1.7879
S 0.0 0.0 0.0
C 2.5573 0.1266 1.7022
F 2.4311 -0.1275 4.4898
H -4.2362 -1.1937 1.6708
H -2.8982 -2.0155 2.4384
H -2.0598 -0.3013 4.5055
H 0.1656 -0.3203 5.6798
Au -1.0872 1.9974 -0.4371
H 3.3915 0.2743 2.3988
H 2.5141 0.9678 0.9946
H 2.7625 -0.774 1.1018
35
Energy=0.6408124245769131
O -3.4792 0.3365 2.9616
C -2.6119 -0.0879 2.2047
C -1.1581 -0.0413 2.6234
C -0.952 -0.0059 4.0099
C 0.3379 -0.0063 4.5312
C 1.4052 -0.0287 3.6305
N 1.2322 0.0 2.3109
C -0.0 0.0 1.8055
S 0.0 0.0 0.0
N -2.9023 -0.6631 1.0109
C -4.2608 -0.7635 0.5267
C -4.6945 0.3777 -0.4132
C -4.5837 1.772 0.241
C -5.7785 2.1154 1.1211
S -7.2481 2.3968 0.0752
O -7.2236 3.7932 -0.3854
O -8.4235 1.8413 0.7618
C -6.8825 1.3277 -1.3632
C -6.1294 0.0837 -0.9097
H -1.8341 0.0149 4.6521
H 0.5147 0.0098 5.6083
H 2.4413 -0.0524 3.9866
Au -1.1507 1.94 -0.5006
H -2.1284 -0.9071 0.3959
H -4.3772 -1.7233 -0.0021
H -4.9212 -0.7887 1.4057
H -4.0117 0.3726 -1.2807
H -3.6677 1.8347 0.8462
H -4.4958 2.5463 -0.5395
H -6.0219 1.3232 1.8406
H -5.6528 3.0641 1.6607
H -7.8773 1.0989 -1.7708
H -6.3262 1.9401 -2.0858
H -6.7145 -0.3814 -0.0975
H -6.1038 -0.6548 -1.7264
34
Energy=1.580324679845842
O 0.0596 -4.2477 3.161
C -0.2468 -3.3402 4.1882
C 0.0478 -1.9093 3.7599
O -0.4357 -1.5509 2.4721
P 0.0 0.0 2.0802
O -0.7957 1.0255 2.8027
S 0.0 0.0 0.0
O 1.6017 0.0 2.4047
C 2.1114 -0.5062 3.6547
C 1.5726 -1.9185 3.7798
O 1.8881 -2.5972 4.9821
C 0.8269 -3.4905 5.2941
N 0.3133 -3.1329 6.6092
C 0.7464 -2.1182 7.452
N 0.0997 -2.0815 8.5912
C -0.8047 -3.1207 8.5129
C -0.6902 -3.7961 7.2885
N -1.4157 -4.843 6.8851
C -2.3072 -5.215 7.8071
N -2.5272 -4.6722 9.0117
C -1.7917 -3.6173 9.3985
N -2.0116 -3.0634 10.6096
H -0.3805 -3.9338 2.357
H -1.2584 -3.4951 4.5957
H -0.3405 -1.2085 4.5202
Au -1.8379 1.3877 -0.2225
H 1.7797 0.1305 4.4923
H 3.2065 -0.4691 3.5843
H 1.9184 -2.5001 2.9074
H 1.1878 -4.5307 5.3122
H 1.5548 -1.4564 7.1503
H -2.9412 -6.0711 7.5486
H -1.4605 -2.2715 10.909
H -2.7258 -3.4554 11.2079
16
Energy=-0.27090068239991316
N 3.4078 -0.0004 0.9333
C 2.4611 -0.0002 1.6051
C 1.2748 0.0 2.4066
C 0.0 0.0 1.7697
S 0.0 0.0 0.0
C -1.149 0.0002 2.5719
C -1.0173 0.0002 3.9538
C 0.2125 0.0002 4.6069
C 1.3585 0.0002 3.8168
Br 3.0511 0.0002 4.6633
N -2.253 0.0002 4.7754
O -2.1184 0.0004 5.9857
O -3.3188 0.0 4.1835
Au -2.2167 -0.0037 -0.6205
H -2.1465 0.0002 2.1379
H 0.2577 0.0003 5.6935
31
Energy=1.6037340190684155
O 4.5105 0.4186 6.2654
C 3.3764 -0.0237 6.8514
O 3.3815 -0.4005 7.9924
C 2.1353 -0.0072 5.9994
C 0.889 -0.044 6.6614
C -0.284 -0.0373 5.9248
C -0.2354 -0.0153 4.5202
C 1.005 -0.0028 3.8421
C 2.1896 0.001 4.6078
N 1.0936 -0.0 2.467
C -0.0 -0.0 1.7738
N -1.269 -0.0011 2.336
C -1.4797 -0.0121 3.7419
O -2.6041 -0.0183 4.1962
C -2.4389 0.0039 1.4997
C -3.0317 -1.2043 1.1256
C -4.1647 -1.1921 0.315
C -4.6968 0.0228 -0.1093
C -4.1093 1.2368 0.2718
C -2.9769 1.2242 1.0849
Cl -4.7991 2.7324 -0.2726
F -5.7769 0.0297 -0.886
S 0.0 0.0 0.0
H 4.3117 0.8072 5.4021
H 0.8812 -0.0752 7.7514
H -1.2633 -0.0529 6.4063
H 3.1327 -0.0211 4.0569
H -2.6014 -2.1461 1.4674
H -4.6532 -2.1155 0.0
H -2.5149 2.1637 1.3868
Au 2.2864 -0.0261 -0.3494
32
Energy=-0.23717040914924128
N -3.4682 -0.0083 1.1037
C -2.4687 -0.0056 1.6963
C -1.2479 -0.0016 2.443
C 0.0 0.0 1.7692
S 0.0 0.0 0.0
N 1.1471 0.0 2.4425
C 1.1496 0.0083 3.7797
C -0.0402 0.0137 4.5402
C -1.2686 0.0027 3.8549
C -2.5835 0.0143 4.5842
C 0.0014 0.0316 6.0578
C -0.5905 1.2752 6.6888
C -0.1232 2.5452 6.3225
F 0.8808 2.6162 5.4306
C -0.6314 3.7338 6.8318
C -1.6581 3.6705 7.7752
C -2.1478 2.4347 8.1956
C -1.6108 1.2616 7.6561
Cl -2.2591 -0.2621 8.233
C 2.5121 0.0177 4.424
Au 2.281 0.0098 -0.3734
H -2.8097 1.0294 4.9491
H -3.4093 -0.2955 3.9315
H -2.5672 -0.6408 5.4653
H 1.04 -0.0672 6.3989
H -0.5312 -0.8421 6.4561
H -0.2145 4.6808 6.4868
H -2.0756 4.59 8.1902
H -2.9432 2.3661 8.9378
H 3.2791 0.0061 3.6404
H 2.6616 -0.8593 5.0742
H 2.6466 0.9185 5.0419
44
Energy=1.93550746412302
C -2.5139 2.5216 1.6404
C -3.0555 1.2115 1.1401
C -4.1856 1.1449 0.3155
C -4.6855 -0.0792 -0.1362
C -4.0623 -1.2733 0.2332
C -2.9359 -1.2316 1.0544
C -2.4385 -0.0023 1.4911
N -1.2656 0.0154 2.3292
C -0.0 -0.0 1.7722
S 0.0 0.0 0.0
N 1.1066 -0.0 2.4408
C 1.1021 0.0218 3.8309
O 2.149 -0.0057 4.4546
C -0.2295 0.0913 4.5276
C -0.1624 0.1356 5.9001
C -1.1004 0.1997 6.9572
C -0.8542 0.2365 8.3309
C -2.1072 0.2949 8.9756
C -3.0623 0.2906 7.9639
O -2.4495 0.2337 6.7694
C -4.5142 0.3338 7.9406
C -5.261 0.3932 9.1324
C -6.6517 0.4339 9.0967
C -7.2946 0.4148 7.8588
F -8.6317 0.4538 7.8216
C -6.5818 0.3562 6.6621
C -5.1909 0.3159 6.7023
C -1.4672 0.1051 3.7336
O -2.6058 0.1873 4.1496
H -2.5962 2.58 2.7377
H -3.0662 3.3679 1.2093
H -1.4499 2.6376 1.3792
H -4.6812 2.074 0.0232
H -5.5679 -0.099 -0.7801
H -4.4505 -2.2327 -0.1148
H -2.4263 -2.1473 1.3592
Au 2.3068 0.0445 -0.2634
H 0.8724 0.1126 6.26
H 0.1304 0.2215 8.7936
H -2.2976 0.3354 10.0448
H -4.7508 0.4074 10.0974
H -7.2478 0.48 10.0094
H -7.1246 0.3428 5.7155
H -4.61 0.2698 5.7788
19
Energy=2.8181173306789686
C 0.1997 -0.9496 6.6957
O -0.0419 0.243 5.9576
C 0.0107 0.162 4.6133
C -1.196 0.1455 3.883
Br -2.8404 0.1968 4.8332
C -1.2095 0.0832 2.4927
C -0.0 0.0 1.7827
C 1.2055 0.0 2.4908
C 1.2267 0.1024 3.8912
C 2.5935 0.1271 4.4914
O 3.5485 -0.3988 4.0123
Cl 2.7794 1.1323 5.9695
S 0.0 0.0 0.0
H 0.1384 -0.6778 7.7567
H -0.5647 -1.7105 6.4653
H 1.2027 -1.3585 6.489
H -2.1572 0.0821 1.9539
H 2.1518 -0.0668 1.954
Au -0.1312 -2.2435 -0.506
21
Energy=2.869830944313498
S 0.0 0.0 0.0
C 0.0 0.0 1.7435
N -1.1013 -0.0001 2.3972
C -0.908 -0.0001 3.7914
O -1.7928 -0.0002 4.6107
C 0.5708 0.0001 4.156
S 1.5349 -0.0 2.6848
C 0.9553 0.0008 5.4514
C 2.2783 0.0012 6.0573
C 2.3684 0.0045 7.4655
C 3.6001 0.0053 8.1086
C 4.7856 0.0027 7.3649
Cl 6.3116 0.0038 8.1871
C 4.7162 -0.0008 5.9602
Cl 6.1633 -0.0043 4.9962
C 3.4785 -0.0015 5.321
Au 2.2517 0.0014 -0.5107
H 0.1094 0.0012 6.1475
H 1.4518 0.0065 8.0591
H 3.6628 0.0079 9.1975
H 3.4753 -0.0043 4.2325
19
Energy=1.278342802064601
Cl -4.5454 -0.545 8.3021
C -3.3629 -0.428 7.0262
C -3.777 -0.3574 5.6931
C -2.8185 -0.2641 4.6919
C -1.4354 -0.238 4.9688
C -1.0606 -0.3119 6.3255
C -2.0072 -0.4058 7.3486
Cl 0.6184 -0.2922 6.8242
C -0.5148 -0.1372 3.8278
C 0.8582 -0.0745 3.7316
O 1.1875 -0.0 2.4181
C -0.0 -0.0 1.7427
N -1.0254 -0.0745 2.5376
S 0.0 0.0 0.0
H -4.8398 -0.3758 5.45
H -3.119 -0.2081 3.6455
H -1.6822 -0.4613 8.3867
H 1.6733 -0.0678 4.4433
Au 0.887 2.0824 -0.4645
36
Energy=-1.9333170492939276
S 0.0 0.0 0.0
C -0.0 -0.0 1.837
C 1.3624 -0.0 2.5373
C 1.1543 0.4277 4.0068
N 2.3807 0.5095 4.7641
C 3.2488 1.6179 4.3944
C 4.2921 1.8759 5.4769
C 3.6445 2.2345 6.8235
C 2.3728 1.3821 7.1366
C 2.3562 0.1685 6.1794
C 2.4109 0.8772 8.5841
C 1.1038 2.2238 6.9255
C 2.0917 -1.3376 2.4587
Au 0.4487 -2.1647 -0.6031
H -0.6422 -0.8119 2.2122
H -0.5284 0.9447 2.058
H 1.979 0.7685 2.0397
H 0.4937 -0.3096 4.493
H 0.6002 1.3957 4.0071
H 3.7505 1.4079 3.4325
H 2.6572 2.5493 4.2308
H 4.9679 2.6818 5.1505
H 4.9169 0.9738 5.5839
H 3.3721 3.3031 6.8258
H 4.39 2.1093 7.6252
H 3.2206 -0.4758 6.4291
H 1.4603 -0.4414 6.3722
H 3.2855 0.2289 8.7566
H 2.4718 1.7189 9.2929
H 1.5062 0.2965 8.8296
H 0.1955 1.6187 7.081
H 1.0568 2.6435 5.9102
H 1.0738 3.0669 7.6348
H 2.3673 -1.592 1.4246
H 3.0055 -1.3013 3.0689
H 1.4578 -2.1512 2.8534
41
Energy=-0.49768471022415667
S 0.0 0.0 0.0
C -0.0 0.0 1.7566
N -1.0352 -0.0069 2.5713
N -0.5584 0.0065 3.8581
C 0.7488 0.0067 3.8139
N 1.1662 0.0 2.4889
C 2.5056 0.07 2.0044
C 3.3495 -1.0353 2.1391
C 4.6827 -0.9367 1.7365
C 5.1623 0.2564 1.1901
C 4.3057 1.3516 1.0393
C 2.9753 1.2631 1.4474
C 1.6861 0.0904 4.9767
C 2.6516 1.253 4.8417
C 2.1701 2.5564 4.6529
C 3.0581 3.6082 4.4442
C 4.4404 3.391 4.3975
C 4.9306 2.0766 4.558
C 4.0287 1.0351 4.7956
O 6.2566 1.7456 4.4867
C 7.0486 2.459 3.5422
C 7.5817 3.7682 4.118
C 6.4841 4.509 4.8799
O 5.2429 4.479 4.1813
Au -2.3102 -0.0388 -0.206
H 2.9569 -1.9593 2.5673
H 5.3483 -1.7951 1.8497
H 6.2069 0.3333 0.8807
H 4.6767 2.2856 0.6118
H 2.3019 2.1165 1.3641
H 1.0523 0.1909 5.8705
H 2.2533 -0.848 5.0847
H 1.0937 2.744 4.6646
H 2.706 4.6337 4.3172
H 4.4434 0.0301 4.8882
H 6.4487 2.6518 2.6379
H 7.8731 1.7864 3.2622
H 8.4233 3.5795 4.805
H 7.9669 4.3852 3.289
H 6.3493 4.0715 5.8837
H 6.7414 5.571 5.0073
29
Energy=4.278087861700846
C 2.7333 1.7455 9.9389
O 3.9122 1.4238 9.2385
C 3.8096 0.9503 7.9696
C 5.0133 0.6408 7.319
C 5.0058 0.1384 6.0208
C 3.7984 -0.0579 5.3365
O 3.7235 -0.5865 4.092
C 4.8973 -0.9296 3.3925
C 2.5719 0.2716 5.9615
C 1.2586 0.1432 5.3487
C 0.791 0.0285 4.0834
S 1.6086 0.0 2.5194
C -0.0 0.0 1.7397
S 0.0 0.0 0.0
N -1.0441 -0.0095 2.4988
C -0.7125 0.0031 3.8624
O -1.5235 0.0058 4.7611
C 2.6063 0.7549 7.2894
H 2.0774 0.8651 10.0659
H 3.0437 2.1038 10.9292
H 2.1594 2.543 9.4329
H 5.9511 0.7939 7.8557
H 5.9542 -0.1092 5.5456
H 5.4671 -1.7146 3.9197
H 4.5709 -1.3134 2.4171
H 5.5502 -0.0529 3.2363
H 0.4262 0.1997 6.0612
Au -2.3023 -0.0258 -0.2941
H 1.654 0.9867 7.7649
19
Energy=0.2316923489644985
S 0.0 0.0 0.0
C -0.0 -0.0 1.7546
N 1.0706 0.0 2.5074
N 0.6853 -0.0 3.8443
C -0.6072 0.0001 3.9095
N -1.1391 -0.0 2.6205
N -2.3548 0.0002 2.1486
C -3.5243 0.0009 2.6525
C -4.599 0.0017 1.6463
N -4.4294 0.0029 0.316
C -5.6755 0.0031 -0.2548
C -6.6306 0.0021 0.7363
N -5.9297 0.0012 1.9229
Au -2.3341 0.0021 -0.3821
H -1.2185 0.0001 4.8106
H -3.7848 0.0011 3.7238
H -5.811 0.004 -1.333
H -7.716 0.0019 0.6993
H -6.3341 0.0002 2.8524
21
Energy=0.20907943317217115
N -3.363 -0.2596 5.2363
C -2.3517 -0.1942 4.6722
C -1.1143 -0.1306 3.9493
C -1.1847 -0.0664 2.5435
O -2.4066 0.0051 1.9614
C -2.9596 -1.2282 1.4903
C -0.0 0.0 1.775
S 0.0 0.0 0.0
C 1.234 0.0 2.4419
C 1.3044 -0.0875 3.8324
C 0.1411 -0.1471 4.5961
C 0.2204 -0.2247 6.1044
F -0.4011 0.815 6.6823
F -0.3563 -1.3453 6.5673
F 1.4936 -0.2214 6.5309
H -3.1537 -1.9073 2.3362
H -3.9083 -0.9751 1.0008
H -2.2845 -1.7056 0.7633
Au -1.5512 1.6375 -0.4978
H 2.1492 0.0755 1.8519
H 2.2735 -0.0923 4.3306
22
Energy=0.2074728376458259
C -5.9328 0.4463 3.4169
C -4.8647 0.4666 4.488
O -3.5875 0.3513 3.8393
C -2.5063 0.3499 4.6342
O -2.5614 0.4398 5.839
C -1.2339 0.2251 3.8628
C -0.0343 0.2135 4.5898
C 1.1675 0.091 3.9095
F 2.3254 0.0707 4.5728
C 1.1937 0.0 2.5141
C -0.0 -0.0 1.775
C -1.2158 0.1073 2.4688
S 0.0 0.0 0.0
F 2.3704 -0.1227 1.9081
H -5.8975 -0.493 2.8442
H -6.9287 0.5334 3.8778
H -5.8017 1.2841 2.7151
H -4.8812 1.399 5.075
H -4.9758 -0.3645 5.2028
H -0.0494 0.2925 5.6773
H -2.1505 0.0979 1.9102
Au 1.0439 -1.9859 -0.5221
51
Energy=0.11758224102109976
O -5.6459 -3.977 -0.7927
C -4.458 -4.0777 -0.5317
C -3.8547 -5.4704 -0.2377
N -4.9143 -6.2877 0.3269
C -5.8765 -7.0461 -0.3721
O -5.8498 -7.348 -1.5393
C -6.9042 -7.4166 0.6513
C -6.5549 -6.8259 1.8682
C -5.3011 -6.0506 1.6549
O -4.7045 -5.3306 2.4269
C -7.3324 -6.9906 3.0074
C -8.4871 -7.7783 2.8912
C -8.8374 -8.3724 1.6699
C -8.0444 -8.1986 0.5258
C -3.1831 -6.068 -1.4753
N -3.61 -3.0022 -0.5105
C -4.212 -1.6701 -0.5776
C -4.3914 -1.1223 0.8414
N -3.1155 -1.1545 1.5536
C -2.4602 -2.4583 1.5817
C -2.3064 -2.9852 0.1485
C -2.5448 0.012 1.9567
O -3.1027 1.1029 1.8342
C -1.1715 -0.0686 2.5746
C -1.0677 -0.1164 3.9687
C 0.1811 -0.1351 4.5944
C 1.3416 -0.0832 3.8189
C 1.2505 -0.0 2.4289
C 0.0 -0.0 1.7877
S 0.0 0.0 0.0
H -3.1176 -5.3845 0.5699
H -7.0499 -6.5199 3.951
H -9.1267 -7.931 3.7636
H -9.7449 -8.9778 1.6107
H -8.307 -8.6516 -0.4321
H -3.8818 -6.1226 -2.3175
H -2.8181 -7.0833 -1.2626
H -2.3258 -5.4397 -1.759
H -5.1792 -1.7528 -1.0856
H -3.5451 -1.0093 -1.1543
H -5.1234 -1.747 1.3808
H -4.7441 -0.0844 0.8344
H -3.0795 -3.1649 2.162
H -1.4824 -2.3679 2.0683
H -1.6396 -2.3108 -0.4098
H -1.8462 -3.9788 0.1484
H -1.9814 -0.1473 4.5671
H 0.2453 -0.1834 5.6835
H 2.3242 -0.0891 4.2965
H 2.153 0.0719 1.8188
Au -1.4958 1.7103 -0.456
